Wogonin.pdb
 OpenBabel02182114013D

 33 35  0  0  0  0  0  0  0  0999 V2000
    0.3200   -0.5190    0.1150 O   0  0  0  0  0  0  0  0  0  0  0  0
   -1.3980   -2.5990    0.3800 O   0  0  0  0  0  0  0  0  0  0  0  0
   -3.4690    2.4890   -0.1820 O   0  0  0  0  0  0  0  0  0  0  0  0
   -4.1310   -2.1750    0.3670 O   0  0  0  0  0  0  0  0  0  0  0  0
   -0.9830    3.3180   -0.3080 O   0  0  0  0  0  0  0  0  0  0  0  0
   -1.5390    1.0370   -0.0410 C   0  0  0  0  0  0  0  0  0  0  0  0
   -1.0260   -0.2510    0.1010 C   0  0  0  0  0  0  0  0  0  0  0  0
    1.2050    0.5390   -0.0270 C   0  0  0  0  0  0  0  0  0  0  0  0
   -1.8920   -1.3360    0.2400 C   0  0  0  0  0  0  0  0  0  0  0  0
   -0.6030    2.1620   -0.1820 C   0  0  0  0  0  0  0  0  0  0  0  0
   -2.9190    1.2510   -0.0470 C   0  0  0  0  0  0  0  0  0  0  0  0
    0.8340    1.8210   -0.1640 C   0  0  0  0  0  0  0  0  0  0  0  0
    2.6270    0.1400    0.0070 C   0  0  0  0  0  0  0  0  0  0  0  0
   -3.2720   -1.1270    0.2340 C   0  0  0  0  0  0  0  0  0  0  0  0
   -3.7840    0.1640    0.0910 C   0  0  0  0  0  0  0  0  0  0  0  0
    3.5900    1.0160    0.5130 C   0  0  0  0  0  0  0  0  0  0  0  0
    3.0150   -1.1160   -0.4660 C   0  0  0  0  0  0  0  0  0  0  0  0
    4.9320    0.6400    0.5460 C   0  0  0  0  0  0  0  0  0  0  0  0
    4.3580   -1.4930   -0.4330 C   0  0  0  0  0  0  0  0  0  0  0  0
    5.3160   -0.6150    0.0730 C   0  0  0  0  0  0  0  0  0  0  0  0
   -1.1810   -3.3450   -0.8160 C   0  0  0  0  0  0  0  0  0  0  0  0
    1.5280    2.6450   -0.2870 H   0  0  0  0  0  0  0  0  0  0  0  0
   -4.8590    0.3290    0.0870 H   0  0  0  0  0  0  0  0  0  0  0  0
    3.3290    1.9930    0.9110 H   0  0  0  0  0  0  0  0  0  0  0  0
    2.2900   -1.8170   -0.8730 H   0  0  0  0  0  0  0  0  0  0  0  0
    5.6790    1.3210    0.9440 H   0  0  0  0  0  0  0  0  0  0  0  0
    4.6570   -2.4700   -0.8030 H   0  0  0  0  0  0  0  0  0  0  0  0
    6.3610   -0.9090    0.0990 H   0  0  0  0  0  0  0  0  0  0  0  0
   -2.7770    3.1610   -0.2720 H   0  0  0  0  0  0  0  0  0  0  0  0
   -5.0450   -1.8420    0.3400 H   0  0  0  0  0  0  0  0  0  0  0  0
   -0.7830   -4.3250   -0.5400 H   0  0  0  0  0  0  0  0  0  0  0  0
   -2.1210   -3.4890   -1.3570 H   0  0  0  0  0  0  0  0  0  0  0  0
   -0.4520   -2.8410   -1.4580 H   0  0  0  0  0  0  0  0  0  0  0  0
  1  7  1  0  0  0  0
  1  8  1  0  0  0  0
  2  9  1  0  0  0  0
  2 21  1  0  0  0  0
  3 11  1  0  0  0  0
  3 29  1  0  0  0  0
  4 14  1  0  0  0  0
  4 30  1  0  0  0  0
  5 10  2  0  0  0  0
  6  7  2  0  0  0  0
  6 10  1  0  0  0  0
  6 11  1  0  0  0  0
  7  9  1  0  0  0  0
  8 12  2  0  0  0  0
  8 13  1  0  0  0  0
  9 14  2  0  0  0  0
 10 12  1  0  0  0  0
 11 15  2  0  0  0  0
 12 22  1  0  0  0  0
 13 16  2  0  0  0  0
 13 17  1  0  0  0  0
 14 15  1  0  0  0  0
 15 23  1  0  0  0  0
 16 18  1  0  0  0  0
 16 24  1  0  0  0  0
 17 19  2  0  0  0  0
 17 25  1  0  0  0  0
 18 20  2  0  0  0  0
 18 26  1  0  0  0  0
 19 20  1  0  0  0  0
 19 27  1  0  0  0  0
 20 28  1  0  0  0  0
 21 31  1  0  0  0  0
 21 32  1  0  0  0  0
 21 33  1  0  0  0  0
M  END
$$$$
