NHC.pdb
 OpenBabel02182114013D

 31 32  0  0  1  0  0  0  0  0999 V2000
   -1.6890   -0.5370    1.0160 O   0  0  0  0  0  0  0  0  0  0  0  0
   -1.5210    2.3590   -1.0920 O   0  0  0  0  0  0  0  0  0  0  0  0
   -3.7100    1.5690    0.3300 O   0  0  0  0  0  0  0  0  0  0  0  0
   -2.6560   -3.0580    0.2600 O   0  0  0  0  0  0  0  0  0  0  0  0
    1.2620    2.2950    0.7330 O   0  0  0  0  0  0  0  0  0  0  0  0
    5.2270    0.0180   -0.2030 O   0  0  0  0  0  0  0  0  0  0  0  0
    0.4030    0.2020    0.2800 N   0  0  0  0  0  0  0  0  0  0  0  0
    2.7670    0.6800    0.2050 N   0  0  0  0  0  0  0  0  0  0  0  0
    4.3040   -0.9780   -0.3390 N   0  0  0  0  0  0  0  0  0  0  0  0
   -1.6590    0.9830   -0.8010 C   0  0  2  0  0  0  0  0  0  0  0  0
   -3.0950    0.5970   -0.5160 C   0  0  1  0  0  0  0  0  0  0  0  0
   -0.9640    0.5860    0.4890 C   0  0  1  0  0  0  0  0  0  0  0  0
   -2.9270   -0.6850    0.2880 C   0  0  1  0  0  0  0  0  0  0  0  0
   -2.8190   -1.9310   -0.5820 C   0  0  0  0  0  0  0  0  0  0  0  0
    0.6790   -1.1100   -0.0730 C   0  0  0  0  0  0  0  0  0  0  0  0
    1.4730    1.1220    0.4220 C   0  0  0  0  0  0  0  0  0  0  0  0
    1.9160   -1.5530   -0.2880 C   0  0  0  0  0  0  0  0  0  0  0  0
    3.0100   -0.5600   -0.1280 C   0  0  0  0  0  0  0  0  0  0  0  0
   -1.2860    0.4090   -1.6580 H   0  0  0  0  0  0  0  0  0  0  0  0
   -3.7130    0.4970   -1.4120 H   0  0  0  0  0  0  0  0  0  0  0  0
   -0.9990    1.3950    1.2290 H   0  0  0  0  0  0  0  0  0  0  0  0
   -3.7190   -0.8170    1.0340 H   0  0  0  0  0  0  0  0  0  0  0  0
   -1.9800   -1.8900   -1.2800 H   0  0  0  0  0  0  0  0  0  0  0  0
   -3.7390   -2.0660   -1.1600 H   0  0  0  0  0  0  0  0  0  0  0  0
   -0.5710    2.5460   -1.1760 H   0  0  0  0  0  0  0  0  0  0  0  0
   -3.2370    1.5960    1.1780 H   0  0  0  0  0  0  0  0  0  0  0  0
   -0.1390   -1.8050   -0.1770 H   0  0  0  0  0  0  0  0  0  0  0  0
   -2.6030   -3.8400   -0.3160 H   0  0  0  0  0  0  0  0  0  0  0  0
    2.1400   -2.5750   -0.5630 H   0  0  0  0  0  0  0  0  0  0  0  0
    4.6030   -1.8970   -0.6430 H   0  0  0  0  0  0  0  0  0  0  0  0
    5.9010   -0.4070    0.3530 H   0  0  0  0  0  0  0  0  0  0  0  0
  1 12  1  0  0  0  0
  1 13  1  0  0  0  0
  2 10  1  0  0  0  0
  2 25  1  0  0  0  0
  3 11  1  0  0  0  0
  3 26  1  0  0  0  0
  4 14  1  0  0  0  0
  4 28  1  0  0  0  0
  5 16  2  0  0  0  0
  6  9  1  0  0  0  0
  6 31  1  0  0  0  0
  7 12  1  0  0  0  0
  7 15  1  0  0  0  0
  7 16  1  0  0  0  0
  8 16  1  0  0  0  0
  8 18  2  0  0  0  0
  9 18  1  0  0  0  0
  9 30  1  0  0  0  0
 10 11  1  1  0  0  0
 10 19  1  0  0  0  0
 11 13  1  1  0  0  0
 11 20  1  0  0  0  0
 12 10  1  6  0  0  0
 12 21  1  0  0  0  0
 13 14  1  0  0  0  0
 13 22  1  1  0  0  0
 14 23  1  0  0  0  0
 14 24  1  0  0  0  0
 15 17  2  0  0  0  0
 15 27  1  0  0  0  0
 17 18  1  0  0  0  0
 17 29  1  0  0  0  0
M  END
$$$$
