Baicalin.pdb
 OpenBabel02182114013D

 50 53  0  0  1  0  0  0  0  0999 V2000
    2.9290   -0.0450   -0.3850 O   0  0  0  0  0  0  0  0  0  0  0  0
    1.9990   -0.8150    1.6120 O   0  0  0  0  0  0  0  0  0  0  0  0
    6.1640    1.5520    1.5800 O   0  0  0  0  0  0  0  0  0  0  0  0
    3.6890    0.9340    3.0520 O   0  0  0  0  0  0  0  0  0  0  0  0
    5.5160    2.4360   -1.1120 O   0  0  0  0  0  0  0  0  0  0  0  0
    4.2740    1.4180   -3.2790 O   0  0  0  0  0  0  0  0  0  0  0  0
    3.3570   -0.6210   -2.8350 O   0  0  0  0  0  0  0  0  0  0  0  0
   -2.4530    0.3570    0.4720 O   0  0  0  0  0  0  0  0  0  0  0  0
    1.6200   -3.3720    0.6280 O   0  0  0  0  0  0  0  0  0  0  0  0
   -0.7840   -4.0950   -0.4410 O   0  0  0  0  0  0  0  0  0  0  0  0
   -3.2180   -3.3540   -1.0260 O   0  0  0  0  0  0  0  0  0  0  0  0
    4.8460    1.5620    1.0290 C   0  0  2  0  0  0  0  0  0  0  0  0
    3.9940    0.5010    1.7260 C   0  0  2  0  0  0  0  0  0  0  0  0
    4.9580    1.2910   -0.4710 C   0  0  1  0  0  0  0  0  0  0  0  0
    2.6780    0.2720    0.9820 C   0  0  1  0  0  0  0  0  0  0  0  0
    3.5860    1.0130   -1.0740 C   0  0  1  0  0  0  0  0  0  0  0  0
    3.7100    0.4900   -2.4680 C   0  0  0  0  0  0  0  0  0  0  0  0
    0.7970   -1.1760    1.0780 C   0  0  0  0  0  0  0  0  0  0  0  0
   -0.2390   -0.2430    1.0330 C   0  0  0  0  0  0  0  0  0  0  0  0
    0.6010   -2.4650    0.5800 C   0  0  0  0  0  0  0  0  0  0  0  0
   -1.4730   -0.6020    0.4880 C   0  0  0  0  0  0  0  0  0  0  0  0
   -1.6660   -1.8900   -0.0080 C   0  0  0  0  0  0  0  0  0  0  0  0
   -0.6310   -2.8270    0.0350 C   0  0  0  0  0  0  0  0  0  0  0  0
   -2.9770   -2.2420   -0.5750 C   0  0  0  0  0  0  0  0  0  0  0  0
   -3.6870    0.0310   -0.0700 C   0  0  0  0  0  0  0  0  0  0  0  0
   -3.9970   -1.1740   -0.5730 C   0  0  0  0  0  0  0  0  0  0  0  0
   -4.6690    1.1340   -0.0330 C   0  0  0  0  0  0  0  0  0  0  0  0
   -6.0330    0.8550    0.0880 C   0  0  0  0  0  0  0  0  0  0  0  0
   -4.2390    2.4600   -0.1170 C   0  0  0  0  0  0  0  0  0  0  0  0
   -6.9600    1.8970    0.1240 C   0  0  0  0  0  0  0  0  0  0  0  0
   -5.1660    3.5020   -0.0810 C   0  0  0  0  0  0  0  0  0  0  0  0
   -6.5270    3.2200    0.0400 C   0  0  0  0  0  0  0  0  0  0  0  0
    4.4410    2.5650    1.2110 H   0  0  0  0  0  0  0  0  0  0  0  0
    4.5490   -0.4410    1.8130 H   0  0  0  0  0  0  0  0  0  0  0  0
    5.6440    0.4530   -0.6480 H   0  0  0  0  0  0  0  0  0  0  0  0
    2.0600    1.1770    1.0510 H   0  0  0  0  0  0  0  0  0  0  0  0
    2.9380    1.8980   -1.0970 H   0  0  0  0  0  0  0  0  0  0  0  0
    6.0950    1.8100    2.5140 H   0  0  0  0  0  0  0  0  0  0  0  0
    4.5250    0.9880    3.5440 H   0  0  0  0  0  0  0  0  0  0  0  0
    4.9140    3.1860   -0.9670 H   0  0  0  0  0  0  0  0  0  0  0  0
   -0.1060    0.7580    1.4340 H   0  0  0  0  0  0  0  0  0  0  0  0
    4.3660    1.0930   -4.2000 H   0  0  0  0  0  0  0  0  0  0  0  0
   -4.9580   -1.4230   -1.0070 H   0  0  0  0  0  0  0  0  0  0  0  0
    2.3940   -2.9440    1.0340 H   0  0  0  0  0  0  0  0  0  0  0  0
   -1.6770   -4.2250   -0.7950 H   0  0  0  0  0  0  0  0  0  0  0  0
   -6.4090   -0.1600    0.1790 H   0  0  0  0  0  0  0  0  0  0  0  0
   -3.1850    2.7090   -0.2200 H   0  0  0  0  0  0  0  0  0  0  0  0
   -8.0190    1.6780    0.2230 H   0  0  0  0  0  0  0  0  0  0  0  0
   -4.8290    4.5320   -0.1480 H   0  0  0  0  0  0  0  0  0  0  0  0
   -7.2490    4.0300    0.0690 H   0  0  0  0  0  0  0  0  0  0  0  0
  1 15  1  0  0  0  0
  1 16  1  0  0  0  0
  2 15  1  0  0  0  0
  2 18  1  0  0  0  0
  3 12  1  0  0  0  0
  3 38  1  0  0  0  0
  4 13  1  0  0  0  0
  4 39  1  0  0  0  0
  5 14  1  0  0  0  0
  5 40  1  0  0  0  0
  6 17  1  0  0  0  0
  6 42  1  0  0  0  0
  7 17  2  0  0  0  0
  8 21  1  0  0  0  0
  8 25  1  0  0  0  0
  9 20  1  0  0  0  0
  9 44  1  0  0  0  0
 10 23  1  0  0  0  0
 10 45  1  0  0  0  0
 11 24  2  0  0  0  0
 12 13  1  1  0  0  0
 12 33  1  0  0  0  0
 13 15  1  6  0  0  0
 13 34  1  0  0  0  0
 14 12  1  1  0  0  0
 14 35  1  0  0  0  0
 15 36  1  1  0  0  0
 16 14  1  1  0  0  0
 16 17  1  0  0  0  0
 16 37  1  0  0  0  0
 18 19  2  0  0  0  0
 18 20  1  0  0  0  0
 19 21  1  0  0  0  0
 19 41  1  0  0  0  0
 20 23  2  0  0  0  0
 21 22  2  0  0  0  0
 22 23  1  0  0  0  0
 22 24  1  0  0  0  0
 24 26  1  0  0  0  0
 25 26  2  0  0  0  0
 25 27  1  0  0  0  0
 26 43  1  0  0  0  0
 27 28  2  0  0  0  0
 27 29  1  0  0  0  0
 28 30  1  0  0  0  0
 28 46  1  0  0  0  0
 29 31  2  0  0  0  0
 29 47  1  0  0  0  0
 30 32  2  0  0  0  0
 30 48  1  0  0  0  0
 31 32  1  0  0  0  0
 31 49  1  0  0  0  0
 32 50  1  0  0  0  0
M  END
$$$$
